     139
 i =       36, E =      -869.6224347411
 Al         1.7697128928        1.9456197018        6.7166080461
 Al         5.7584233513        1.9454804438        6.7192598416
  N         3.7639879950        1.9483917110        6.7151597226
  N         7.7501317304        1.9446832913        6.7193916974
 Al         3.7705225681        3.8778426365        6.7147002391
 Al         7.7428848438        3.8783417606        6.7224928795
  N         1.7658239794        3.8780907335        6.7078746127
  N         5.7614929140        3.8780944420        6.7246594868
 Al         1.7716501151        7.7719998588        6.7176360932
 Al         5.7555517128        7.7700366393        6.7182881461
  N         3.7626993783        7.7737899545        6.7168274327
  N         7.7506236958        7.7729444129        6.7190148736
  N         1.7713854906        9.7056152113        6.7095267289
  N         5.7567460720        9.7041428093        6.7093862994
 Al         3.7651686917        9.7076743023        6.7119743861
 Al         7.7488919996        9.7072915388        6.7115611490
 Al         1.7607868995        4.8370752028        8.3681535587
 Al         5.7637885359        4.8428323285        8.4181536860
  N         7.7404031242        4.8380905187        8.4218927412
  N         3.7700259966        4.8310946517        8.3838134097
  N         1.7707344657        6.7758965573        8.3774155435
  N         5.7543602598        6.7759254708        8.3728265674
 Al         7.7440221671        6.7699915005        8.3673637220
 Al         3.7665356228        6.7706873004        8.3664660289
 Al         1.7697593426       10.6960277068        8.3630207145
 Al         5.7583436566       10.6930263025        8.3677279399
  N         3.7668473449       10.6935721429        8.3747098396
  N         7.7471581196       10.6875319956        8.3751547624
  N         1.7711398008        0.9632208765        8.3783082699
  N         5.7572095547        0.9686174185        8.3866378649
 Al         3.7667956976        0.9645191615        8.3747127629
 Al         7.7474994071        0.9571303249        8.3780373051
 Al         1.7650014256        7.7842461881       10.0512457031
 Al         5.7573035615        7.7409786217       10.0586193386
  N         3.7717284751        7.7768565423       10.0101583540
  N         7.7375973321        7.7390056853       10.0299725116
  N         1.7646965982        9.6997798186       10.0067137878
  N         5.7628701789        9.6870805175       10.0199497481
 Al         3.7692945392        9.6934623709       10.0419096077
 Al         7.7444068885        9.6865378844       10.0515901240
 Al         1.7720678305        1.9219910107       10.0728635958
 Al         5.7556738967        1.9275882005       10.0971922243
  N         3.7637773042        1.9391481511       10.0540057408
  N         7.7507325569        1.9020530262       10.0715645775
  N         1.7346890205        3.8536748385       10.0070038802
  N         5.7864047875        3.8681073505       10.1229919128
 Al         3.7652823844        3.8760989061       10.0613672057
 Al         7.7397330098        3.8281390540       10.1270147670
 Al         1.7757184622       10.6988202156       11.6326500041
 Al         5.7536330540       10.7003656763       11.6388594899
  N         3.7647448028       10.5937856551       11.7476265620
  N         7.7518696801       10.5895292807       11.7636399830
  N         1.7814841870        0.9284307016       11.7268310559
  N         5.7526786493        0.9295115506       11.7460295323
 Al         3.7660621191        0.8348372462       11.6282198639
 Al         7.7457810517        0.8221341720       11.6388475538
 Al         1.8270566688        5.0526399923       11.4914792528
 Ga         5.5753427084        4.7721558647       11.9754987647
  N         3.6251233585        4.9144032848       11.6325894302
  N         7.9471253129        4.8222124984       11.9308289583
  N         1.7563044885        6.9382780431       11.7534197263
  N         5.7636279475        6.8126021073       11.7847184900
 Al         3.7715507268        6.7817758885       11.6220679026
 Al         7.7235685886        6.7728473209       11.6811572283
 Al         1.7719600000        1.9440400000        0.0000000000
 Al         1.7719600000        7.7759600000       -0.0000000000
 Al         3.7641900000        3.8873100000        0.0000000000
 Al         5.7564200000        1.9438400000       -0.0000000000
 Al         5.7564200000        7.7757600000        0.0000000000
 Al         7.7503300000        3.8871900000        0.0000000000
  N         1.7721400000        3.8874800000       -0.0000000000
  N         3.7647900000        1.9438000000        0.0000000000
  N         3.7647900000        7.7757100000        0.0000000000
  N         5.7564700000        3.8873600000       -0.0000000000
  N         7.7500700000        1.9437100000        0.0000000000
  N         7.7500700000        7.7756300000        0.0000000000
  N         1.7721400000        9.7193900000        0.0003100000
  N         5.7564700000        9.7192700000        0.0003100000
 Al         3.7641900000        9.7192200000        0.0003100000
 Al         7.7503300000        9.7191100000        0.0003100000
 Al         1.7719600000        4.8598300000        1.6830800000
 Al         5.7564200000        4.8596300000        1.6830800000
  N         7.7500700000        4.8595000000        1.6830900000
  N         3.7647900000        4.8595900000        1.6830900000
  N         1.7721400000        6.8032600000        1.6831600000
  N         5.7564700000        6.8031400000        1.6831600000
 Al         7.7503300000        6.8029800000        1.6831600000
 Al         3.7642000000        6.8030900000        1.6831600000
 Al         1.7719600000       10.6913200000        1.6831800000
 Al         5.7564200000       10.6911200000        1.6831800000
  N         3.7647900000       10.6910800000        1.6831800000
  N         7.7500700000       10.6909900000        1.6831800000
  N         1.7721400000        0.9715400000        1.6832500000
  N         5.7564700000        0.9714200000        1.6832500000
 Al         3.7642000000        0.9713700000        1.6832600000
 Al         7.7503300000        0.9712600000        1.6832600000
 Al         1.7719600000        7.7751800000        3.3660300000
 Al         5.7564200000        7.7749800000        3.3660300000
  N         3.7647900000        7.7749400000        3.3660300000
  N         7.7500700000        7.7748500000        3.3660300000
  N         1.7721400000        9.7186200000        3.3661100000
  N         5.7564700000        9.7185000000        3.3661100000
 Al         3.7641900000        9.7184500000        3.3661100000
 Al         7.7503300000        9.7183300000        3.3661100000
 Al         1.7719600000        1.9439000000        3.3663700000
 Al         5.7564200000        1.9437000000        3.3663700000
  N         3.7647900000        1.9436600000        3.3663800000
  N         7.7500700000        1.9435700000        3.3663800000
  N         1.7721400000        3.8873300000        3.3664500000
  N         5.7564700000        3.8872100000        3.3664500000
 Al         3.7641900000        3.8871600000        3.3664600000
 Al         7.7503300000        3.8870500000        3.3664600000
 Al         1.7719600000       10.6909700000        5.0492200000
 Al         5.7564200000       10.6907700000        5.0492300000
  N         7.7500700000       10.6906500000        5.0492300000
  N         3.7647900000       10.6907300000        5.0492300000
  N         1.7721400000        0.9712000000        5.0493000000
  N         5.7564700000        0.9710800000        5.0493100000
 Al         7.7503300000        0.9709200000        5.0493100000
 Al         3.7642000000        0.9710300000        5.0493100000
 Al         1.7719600000        4.8592600000        5.0493200000
 Al         5.7564200000        4.8590600000        5.0493200000
  N         3.7647900000        4.8590200000        5.0493300000
  N         7.7500700000        4.8589300000        5.0493300000
  N         1.7721400000        6.8026800000        5.0494000000
  N         5.7564700000        6.8025600000        5.0494000000
 Al         3.7642000000        6.8025200000        5.0494100000
 Al         7.7503300000        6.8024000000        5.0494100000
  C         8.1437054088        3.0602553493       13.8034230475
  C         8.3776722990        4.5110852821       13.3781073052
  C         7.8260949014        5.5226133058       14.3930479817
  H         8.8247771964        2.3911171308       13.2558293419
  H         7.0974856301        2.7671242368       13.6484577626
  H         8.3727277627        2.9365873328       14.8719920220
  H         5.6347343474        3.9632208329       13.3074811166
  H         9.4933595667        4.6436563015       13.4784183109  
  H         8.1384910009        6.5497878339       14.1339580974
  H         6.7334654681        5.4831776720       14.4532997444
  H         8.2400021986        5.3163149770       15.3908032280 